106
Al F4 K  Generated by VESTA
Al    0.000000    0.000000    0.000000
Al   -1.851934    0.000000    6.133513
Al    0.000000    7.237000    0.000000
Al   -1.851934    7.237000    6.133513
Al    7.340300    0.000000    0.000000
Al    5.488366    0.000000    6.133513
Al    7.340300    7.237000    0.000000
Al    5.488366    7.237000    6.133513
Al    0.000000    3.618500    0.000000
Al   -1.851934    3.618500    6.133513
Al    7.340300    3.618500    0.000000
Al    5.488366    3.618500    6.133513
Al    3.670150    0.000000    0.000000
Al    1.818216    0.000000    6.133513
Al    3.670150    7.237000    0.000000
Al    1.818216    7.237000    6.133513
Al    3.670150    3.618500    0.000000
Al    1.818216    3.618500    6.133513
 K   -0.040317    1.809250    3.318231
 K    5.528683    5.427750    2.815283
 K    3.638958    1.809250    3.336632
 K    1.849408    5.427750    2.796882
 F    1.880272    7.088642    0.047228
 F    3.608094    0.148359    6.086285
 F    3.608094    3.470141    6.086285
 F    1.880272    3.766859    0.047228
 F    0.118420    1.809250    0.312809
 F    5.369946    5.427750    5.820704
 F    3.496177    1.809250    0.269875
 F    1.992189    5.427750    5.863639
 F   -0.002579    6.969231    1.739464
 F    5.490945    0.267769    4.394049
 F    5.490945    3.350731    4.394049
 F   -0.002579    3.886269    1.739464
 F    3.685915    6.975744    1.741918
 F    1.802451    0.261256    4.391595
 F    1.802451    3.357244    4.391595
 F    3.685915    3.879756    1.741918
 F   -0.118420   -1.809250   -0.312809
 F   -1.880272    0.148359   -0.047228
 F    0.002579    0.267769   -1.739464
 F    1.880272   -0.148358    0.047228
 F   -0.002579   -0.267769    1.739464
 F   -1.970354   -1.809250    5.820704
 F   -3.732206    0.148359    6.086285
 F   -1.849355    0.267769    4.394049
 F    0.028337   -0.148358    6.180741
 F   -1.854513   -0.267769    7.872978
 F   -1.733514    1.809250    6.446322
 F   -0.118420    5.427750   -0.312809
 F   -1.880272    7.385358   -0.047228
 F    0.002579    7.504769   -1.739464
 F    0.118420    9.046250    0.312809
 F   -1.970354    5.427750    5.820704
 F   -3.732206    7.385358    6.086285
 F   -1.849355    7.504769    4.394049
 F    0.028337    7.088642    6.180741
 F   -1.854513    6.969231    7.872978
 F   -1.733514    9.046250    6.446322
 F    7.221880   -1.809250   -0.312809
 F    5.460028    0.148359   -0.047228
 F    7.342879    0.267769   -1.739464
 F    9.220572   -0.148358    0.047228
 F    7.337721   -0.267769    1.739464
 F    7.458720    1.809250    0.312809
 F    5.369946   -1.809250    5.820704
 F    7.368638   -0.148358    6.180741
 F    5.485787   -0.267769    7.872978
 F    5.606786    1.809250    6.446322
 F    7.221880    5.427750   -0.312809
 F    5.460028    7.385358   -0.047228
 F    7.342879    7.504769   -1.739464
 F    9.220572    7.088642    0.047228
 F    7.337721    6.969231    1.739464
 F    7.458720    9.046250    0.312809
 F    3.608094    7.385358    6.086285
 F    5.490945    7.504769    4.394049
 F    7.368638    7.088642    6.180741
 F    5.485787    6.969231    7.872978
 F    5.606786    9.046250    6.446322
 F   -1.880272    3.470141   -0.047228
 F    0.002579    3.350731   -1.739464
 F   -3.732206    3.470141    6.086285
 F   -1.849355    3.350731    4.394049
 F    0.028337    3.766859    6.180741
 F   -1.854513    3.886269    7.872978
 F    5.460028    3.470141   -0.047228
 F    7.342879    3.350731   -1.739464
 F    9.220572    3.766859    0.047228
 F    7.337721    3.886269    1.739464
 F    7.368638    3.766859    6.180741
 F    5.485787    3.886269    7.872978
 F    3.844123   -1.809250   -0.269875
 F    3.685915   -0.261256    1.741918
 F    3.654385    0.261256   -1.741918
 F    1.992189   -1.809250    5.863639
 F    1.833981   -0.261256    7.875431
 F    1.644243    1.809250    6.403388
 F    3.844123    5.427750   -0.269875
 F    3.654385    7.498256   -1.741918
 F    3.496177    9.046250    0.269875
 F    1.833981    6.975744    7.875431
 F    1.802451    7.498256    4.391595
 F    1.644243    9.046250    6.403388
 F    3.654385    3.357244   -1.741918
 F    1.833981    3.879756    7.875431
